8
	Energy:      -8.3162274
C          4.16001        0.11343        0.62732
O          4.64060        0.33621        1.72656
O          3.34432       -0.91700        0.29346
C          3.05401       -1.79715        1.37981
H          4.33040        0.73786       -0.26341
H          3.97299       -2.25483        1.75944
H          2.40042       -2.59097        1.00766
H          2.52919       -1.26157        2.17718
