6
	Energy:       0.0265527
C         -4.15392        2.05280        4.78176
C         -2.79923        1.78873        5.25915
N         -1.72317        1.57896        5.63835
H         -4.89534        1.57764        5.42955
H         -4.29288        1.66590        3.76877
H         -4.35903        3.12647        4.76441
