7
	Energy:      -1.6945124
H          1.04573        0.43699        5.48815
C          1.36443        1.32708        6.03800
H          0.87297        1.33064        7.01485
H          1.04121        2.21443        5.48671
N          2.80703        1.33669        6.20239
H          3.25255        1.30099        5.28645
H          3.09780        0.49152        6.69212
