9
	Energy:       6.0890488
H          0.92307        0.42714        5.59763
C          1.22202        1.32450        6.14800
H          0.71593        1.32473        7.11710
H          0.92312        2.22162        5.59723
O          2.62492        1.32451        6.37514
C          3.35141        1.32421        5.15371
H          4.41934        1.32423        5.38783
H          3.12122        2.22132        4.57085
H          3.12117        0.42684        4.57126
