14
	Energy:      -0.4775101
H          0.71161        1.44181        7.01911
C          1.23076        1.40789        6.05545
C          2.74471        1.42111        6.25485
H          0.90611        0.50474        5.52745
H          0.90821        2.27613        5.47113
C          3.18484        0.23078        7.10418
H          3.01474        2.34226        6.78562
C          3.46380        1.41462        4.90769
H          3.17226        2.28295        4.30743
H          3.22772        0.51174        4.33417
H          4.54941        1.45338        5.04653
H          2.93770       -0.71905        6.61778
H          2.69283        0.24835        8.08241
H          4.26658        0.25310        7.27352
