11
	Energy:      -8.8020784
C         -2.75051       -0.15016        6.39306
C         -1.25891       -0.28483        6.35371
O         -0.54924       -0.38949        7.34409
H         -3.20677       -0.81039        5.65052
H         -3.03138        0.88857        6.20441
H         -3.11469       -0.45042        7.37970
O         -0.81885       -0.23956        5.06650
C          0.59912       -0.34748        4.93526
H          0.84320       -0.32744        3.86952
H          0.95342       -1.29504        5.35330
H          1.09332        0.50008        5.42026
