5
-4.0520295971678962e+01 frame 2   xyz file generated by TeraChem
     H     4.1215337421   -3.4784387491    0.9220337368
     C     3.0282707988   -3.4785381228    0.9210493134
     H     2.6644677727   -2.8557044893    0.0994719873
     H     2.6628871760   -3.0788946782    1.8707883758
     H     2.6641405380   -4.5012739037    0.7917667121
