52
	Energy:     570.2447110
N         -3.25024        0.44793        0.01923
N         -1.32030        2.53167        0.72100
N         -1.36531       -1.59913        0.91362
N          0.56683        0.48433        1.61014
C         -4.02856       -0.67923       -0.24705
C         -5.31264       -0.25559       -0.79131
C         -5.29687        1.11768       -0.85722
C         -4.00717        1.56250       -0.34442
H         -6.11424       -0.91986       -1.07844
H         -6.07863        1.76917       -1.21870
C         -3.59743        2.91441       -0.25124
C         -3.65125       -2.02498       -0.01975
C         -1.92563        4.74290        0.33483
C         -0.65668        4.75522        0.86381
C         -0.27557        3.37027        1.11176
C         -2.34364        3.34994        0.24097
H         -2.52461        5.59151        0.03888
H         -0.03436        5.61501        1.06278
C          0.96666        2.95741        1.65220
C         -0.33539       -2.41843        1.37768
C         -0.74875       -3.81199        1.27245
C         -2.01652       -3.82425        0.74060
C         -2.40925       -2.43774        0.52070
H         -0.14956       -4.66064        1.56762
H         -2.62791       -4.68535        0.51469
C          2.61749        1.18901        2.44881
C          2.60189       -0.18421        2.51381
C          1.31585       -0.62938        1.99246
C          1.34388        1.61166        1.87945
H          3.40911        1.85433        2.76013
H          3.38370       -0.83569        2.87541
C          0.91197       -1.98200        1.88527
H         -4.26333        3.63724       -0.56604
H          1.57740       -2.70478        2.20118
C          2.05702        4.07375        2.03749
C          2.13904        5.35642        2.51439
C          3.49742        6.00295        2.58241
C          1.02942        6.14740        2.99620
N          0.17080        6.81555        3.39193
O          4.51118        5.32041        2.54594
O          3.62883        7.34814        2.61111
H          2.87960        7.94239        2.47176
H          3.03268        3.67698        1.80455
C         -4.42669       -2.99193       -0.65373
O         -6.35306       -4.86927       -2.69297
C         -5.43623       -4.16092       -2.33685
O         -4.79276       -3.37059       -3.27037
C         -5.07251       -4.06999       -0.89026
H         -4.02375       -2.77763       -3.11594
C         -4.86692       -5.19439        0.00969
N         -4.64051       -6.01139        0.80352
H         -3.57095       -3.28673       -1.26007
